/*--------------------------------*- C++ -*----------------------------------*\
  =========                 |				
  \\      /  F ield         | OpenFOAM: The Open Source CFD Toolbox
   \\    /   O peration     | Website:  https://openfoam.org
    \\  /    A nd           | Version:  9                                   	
     \\/     M anipulation  |
\*---------------------------------------------------------------------------*/
FoamFile
{
    format      ascii;
    class       volScalarField;
    object      nut;
}
// * * * * * * * * * * * * * * * * * * * * * * * * * * * * * * * * * * * * * //


dimensions      [0 2 -1 0 0 0 0];

internalField   uniform 0;

boundaryField
{
    "(front|back|left|right|bottom|stlSurface)"
    {
        type            nutkWallFunction;
        value           $internalField;
    }

    top
    {
        type            calculated;
        value           $internalField;	//uniform 0;
    }

}

// ************************************************************************* //
