/*--------------------------------*- C++ -*----------------------------------*\
  =========                 |				
  \\      /  F ield         | OpenFOAM: The Open Source CFD Toolbox
   \\    /   O peration     | Website:  https://openfoam.org
    \\  /    A nd           | Version:  9                                   	
     \\/     M anipulation  |
\*---------------------------------------------------------------------------*/
FoamFile
{
    format      ascii;
    class       dictionary;
    object      fvSolution;
}
// * * * * * * * * * * * * * * * * * * * * * * * * * * * * * * * * * * * * * //


solvers
{
    "alpha.water.*"
    {
        nAlphaCorr      2;
        nAlphaSubCycles 1;
        cAlpha          1;

        MULESCorr       yes;
        nLimiterIter    10;

/*
        solver          smoothSolver;
        smoother        symGaussSeidel;
        tolerance       1e-8;
        relTol          0;
*/

        solver          PBiCGStab;
        preconditioner  DILU;
        tolerance       1e-08;
        relTol          0;
    }

    "(pcorr|pcorrFinal)"
    {
        solver          PCG;
        preconditioner  DIC;
        tolerance       1e-8;
        relTol          0;
    }

    p_rgh
    {

        solver          PCG;
        preconditioner  DIC;
        tolerance       1e-06;
        relTol          0.01;
	minIter		2;

/*
        solver           GAMG;
        tolerance        1e-6;
        relTol           0;
        smoother         GaussSeidel;
        nPreSweeps       0;
        nPostSweeps      2;
        cacheAgglomeration on;
        agglomerator     faceAreaPair;
        nCellsInCoarsestLevel 100;
        mergeLevels      1;
*/

/*
        solver          PCG;
        preconditioner
        {
            preconditioner  GAMG;
            tolerance       1e-06;
            relTol          0;
            smoother        GaussSeidel;
            nPreSweeps      0;
            nPostSweeps     2;
            nFinestSweeps   2;
            cacheAgglomeration on;
            nCellsInCoarsestLevel 10;
            agglomerator    faceAreaPair;
            mergeLevels     1;
        }
        tolerance       1e-06;
        relTol          0.01;
*/
    }

    p_rghFinal
    {
        $p_rgh;
        //tolerance       1e-08;
        relTol          0;
	minIter		2;
    }

    "(U|UFinal)"
    {
/*
        solver          PBiCG;
        preconditioner  DILU;
        tolerance       1e-08;
        relTol          0;
*/

        solver          PBiCGStab;
        preconditioner  DILU;
        tolerance       1e-08;
        relTol          0;

    }

    "(k|epsilon).*"
    {
/*
        solver          PBiCG;
        preconditioner  DILU;
        tolerance       1e-08;
        relTol          0;
*/

        solver          PBiCGStab;
        preconditioner  DILU;
        tolerance       1e-08;
        relTol          0;

    }

}

PIMPLE
{
    consistent 		yes;
    momentumPredictor   yes;

    nOuterCorrectors    1;
    nCorrectors         3;
    nNonOrthogonalCorrectors 1;
}

relaxationFactors
{
    fields
    {
        ".*" 0.9;
    }
    equations
    {
        ".*" 0.9;
    }
}

// ************************************************************************* //
